% DLR-PAR steady RANS (cold N2), same physics/BCs as the validated Phase-1
% unsteady case; only the time integration differs (pseudo-time to steady state).
% Startup controls (first-order, low CFL, CFL_ADAPT) follow the previous
% campaign's npr20_startup.cfg; production controls follow its final cfg.
SOLVER= RANS
KIND_TURB_MODEL= SST
SST_OPTIONS= V2003m
MATH_PROBLEM= DIRECT
RESTART_SOL= YES
READ_BINARY_RESTART= YES
TIME_DOMAIN= NO
ITER= 4000
AXISYMMETRIC= YES
%
MACH_NUMBER= 0.001
AOA= 0.0
INIT_OPTION= TD_CONDITIONS
FREESTREAM_OPTION= TEMPERATURE_FS
FREESTREAM_PRESSURE= 101325.0
FREESTREAM_TEMPERATURE= 300.0
FREESTREAM_TURBULENCEINTENSITY= 0.01
FREESTREAM_TURB2LAMVISCRATIO= 10.0
REF_DIMENSIONALIZATION= DIMENSIONAL
%
FLUID_MODEL= IDEAL_GAS
GAMMA_VALUE= 1.4
GAS_CONSTANT= 296.8
VISCOSITY_MODEL= SUTHERLAND
MU_REF= 1.663E-5
MU_T_REF= 273.0
SUTHERLAND_CONSTANT= 107.0
CONDUCTIVITY_MODEL= CONSTANT_PRANDTL
PRANDTL_LAM= 0.72
TURBULENT_CONDUCTIVITY_MODEL= CONSTANT_PRANDTL_TURB
PRANDTL_TURB= 0.90
%
MARKER_HEATFLUX= ( WALL, 0.0 )
MARKER_EULER= ( SHROUD )
MARKER_SYM= ( AXIS )
MARKER_RIEMANN= ( INLET, TOTAL_CONDITIONS_PT, 5066250.0, 300.0, 1.0, 0.0, 0.0 )
MARKER_FAR= ( FARFIELD )
MARKER_OUTLET= ( OUTLET, 101325.0 )
MARKER_MONITORING= ( WALL )
MARKER_PLOTTING= ( WALL )
%
NUM_METHOD_GRAD= WEIGHTED_LEAST_SQUARES
CFL_NUMBER= 1.0
CFL_ADAPT= YES
CFL_ADAPT_PARAM= ( 0.5, 1.05, 0.05, 20.0 )
MUSCL_FLOW= YES
SLOPE_LIMITER_FLOW= VENKATAKRISHNAN_WANG
MUSCL_TURB= NO
SLOPE_LIMITER_TURB= NONE
VENKAT_LIMITER_COEFF= 0.001
LINEAR_SOLVER= FGMRES
LINEAR_SOLVER_PREC= ILU
LINEAR_SOLVER_ILU_FILL_IN= 0
LINEAR_SOLVER_ERROR= 1E-4
LINEAR_SOLVER_ITER= 10
CONV_NUM_METHOD_FLOW= SLAU2
TIME_DISCRE_FLOW= EULER_IMPLICIT
CONV_NUM_METHOD_TURB= SCALAR_UPWIND
TIME_DISCRE_TURB= EULER_IMPLICIT
CFL_REDUCTION_TURB= 0.5
CONV_FIELD= RMS_DENSITY
CONV_RESIDUAL_MINVAL= -10
CONV_STARTITER= 50
%
MESH_FILENAME= mesh_L2.su2
MESH_FORMAT= SU2
SOLUTION_FILENAME= restart_A
RESTART_FILENAME= restart_B
CONV_FILENAME= history_B
VOLUME_FILENAME= flow_B
SURFACE_FILENAME= wall_B
OUTPUT_FILES= ( RESTART, CSV, SURFACE_CSV )
VOLUME_OUTPUT= ( COORDINATES, SOLUTION, PRIMITIVE )
OUTPUT_WRT_FREQ= 500, 500, 500
HISTORY_WRT_FREQ_INNER= 1
SCREEN_WRT_FREQ_INNER= 100
SCREEN_OUTPUT= ( INNER_ITER, RMS_DENSITY, RMS_ENERGY, RMS_TKE, RMS_DISSIPATION, LINSOL_ITER, CFL_NUMBER )
